data_image0
_chemical_formula_structural       C10N2C6N2C10Fe
_chemical_formula_sum              "C26 N4 Fe1"
_cell_length_a       9.84
_cell_length_b       9.84
_cell_length_c       11.8325
_cell_angle_alpha    90
_cell_angle_beta     90
_cell_angle_gamma    120

_space_group_name_H-M_alt    "P 1"
_space_group_IT_number       1

loop_
  _space_group_symop_operation_xyz
  'x, y, z'

loop_
  _atom_site_type_symbol
  _atom_site_label
  _atom_site_symmetry_multiplicity
  _atom_site_fract_x
  _atom_site_fract_y
  _atom_site_fract_z
  _atom_site_occupancy
  C   C1        1.0  0.00173  0.00408  0.99270  1.0000
  C   C2        1.0  0.17081  0.09628  0.99422  1.0000
  C   C3        1.0  0.25775  0.01509  0.99460  1.0000
  C   C4        1.0  0.42587  0.09628  0.99433  1.0000
  C   C5        1.0  0.50275  0.00409  0.99272  1.0000
  C   C6        1.0  0.66819  0.08182  0.99221  1.0000
  C   C7        1.0  0.74716  0.99392  0.99307  1.0000
  C   C8        1.0  0.91402  0.08182  0.99212  1.0000
  C   C9        1.0  0.99725  0.25018  0.99052  1.0000
  C   C10       1.0  0.16127  0.33499  0.99148  1.0000
  N   N1        1.0  0.24755  0.26021  0.99470  1.0000
  N   N2        1.0  0.51305  0.26021  0.99501  1.0000
  C   C11       1.0  0.67411  0.33499  0.99190  1.0000
  C   C12       1.0  0.75332  0.25018  0.99074  1.0000
  C   C13       1.0  0.91821  0.33603  0.98972  1.0000
  C   C14       1.0  0.00152  0.50264  0.98974  1.0000
  C   C15       1.0  0.16641  0.58849  0.99051  1.0000
  C   C16       1.0  0.24561  0.50368  0.99146  1.0000
  N   N3        1.0  0.40668  0.57847  0.99466  1.0000
  N   N4        1.0  0.67218  0.57846  0.99503  1.0000
  C   C17       1.0  0.75846  0.50368  0.99192  1.0000
  C   C18       1.0  0.92248  0.58849  0.99079  1.0000
  C   C19       1.0  0.00571  0.75685  0.99228  1.0000
  C   C20       1.0  0.17258  0.84475  0.99309  1.0000
  C   C21       1.0  0.25154  0.75685  0.99210  1.0000
  C   C22       1.0  0.41698  0.83459  0.99263  1.0000
  C   C23       1.0  0.49386  0.74239  0.99417  1.0000
  C   C24       1.0  0.66199  0.82358  0.99459  1.0000
  C   C25       1.0  0.74893  0.74239  0.99438  1.0000
  C   C26       1.0  0.91800  0.83458  0.99280  1.0000
  Fe  Fe1       1.0  0.45984  0.41934  0.00569  1.0000
