data_image0
_chemical_formula_structural       C10N2C6N2C10FeO
_chemical_formula_sum              "C26 N4 Fe1 O1"
_cell_length_a       9.84
_cell_length_b       9.84
_cell_length_c       11.8325
_cell_angle_alpha    90
_cell_angle_beta     90
_cell_angle_gamma    120

_space_group_name_H-M_alt    "P 1"
_space_group_IT_number       1

loop_
  _space_group_symop_operation_xyz
  'x, y, z'

loop_
  _atom_site_type_symbol
  _atom_site_label
  _atom_site_symmetry_multiplicity
  _atom_site_fract_x
  _atom_site_fract_y
  _atom_site_fract_z
  _atom_site_occupancy
  C   C1        1.0  0.00042  0.00128  0.99769  1.0000
  C   C2        1.0  0.16954  0.09351  0.99954  1.0000
  C   C3        1.0  0.25643  0.01212  0.00009  1.0000
  C   C4        1.0  0.42471  0.09352  0.99948  1.0000
  C   C5        1.0  0.50162  0.00130  0.99768  1.0000
  C   C6        1.0  0.66712  0.07949  0.99677  1.0000
  C   C7        1.0  0.74612  0.99149  0.99794  1.0000
  C   C8        1.0  0.91312  0.07948  0.99677  1.0000
  C   C9        1.0  0.99623  0.24773  0.99448  1.0000
  C   C10       1.0  0.16073  0.33198  0.99613  1.0000
  N   N1        1.0  0.24450  0.25589  0.00013  1.0000
  N   N2        1.0  0.51212  0.25589  0.99996  1.0000
  C   C11       1.0  0.67199  0.33198  0.99601  1.0000
  C   C12       1.0  0.75223  0.24774  0.99446  1.0000
  C   C13       1.0  0.91703  0.33329  0.99304  1.0000
  C   C14       1.0  0.00043  0.50013  0.99302  1.0000
  C   C15       1.0  0.16522  0.58568  0.99445  1.0000
  C   C16       1.0  0.24545  0.50145  0.99610  1.0000
  N   N3        1.0  0.40532  0.57753  0.00008  1.0000
  N   N4        1.0  0.67294  0.57753  0.99993  1.0000
  C   C17       1.0  0.75673  0.50145  0.99599  1.0000
  C   C18       1.0  0.92119  0.58566  0.99443  1.0000
  C   C19       1.0  0.00435  0.75394  0.99675  1.0000
  C   C20       1.0  0.17134  0.84193  0.99796  1.0000
  C   C21       1.0  0.25035  0.75396  0.99675  1.0000
  C   C22       1.0  0.41585  0.83213  0.99768  1.0000
  C   C23       1.0  0.49275  0.73993  0.99950  1.0000
  C   C24       1.0  0.66102  0.82130  0.00005  1.0000
  C   C25       1.0  0.74791  0.73992  0.99944  1.0000
  C   C26       1.0  0.91703  0.83212  0.99767  1.0000
  Fe  Fe1       1.0  0.45876  0.41672  0.02897  1.0000
  O   O1        1.0  0.45910  0.41669  0.16792  1.0000
