data_image0
_chemical_formula_structural       C24N2CNCNFeOH
_chemical_formula_sum              "C26 N4 Fe1 O1 H1"
_cell_length_a       9.84
_cell_length_b       9.84
_cell_length_c       11.8325
_cell_angle_alpha    90
_cell_angle_beta     90
_cell_angle_gamma    120

_space_group_name_H-M_alt    "P 1"
_space_group_IT_number       1

loop_
  _space_group_symop_operation_xyz
  'x, y, z'

loop_
  _atom_site_type_symbol
  _atom_site_label
  _atom_site_symmetry_multiplicity
  _atom_site_fract_x
  _atom_site_fract_y
  _atom_site_fract_z
  _atom_site_occupancy
  C   C1        1.0  0.00057  0.50032  0.99063  1.0000
  C   C2        1.0  0.91694  0.33310  0.99063  1.0000
  C   C3        1.0  0.92112  0.58569  0.99154  1.0000
  C   C4        1.0  0.16538  0.58570  0.99154  1.0000
  C   C5        1.0  0.75213  0.24773  0.99152  1.0000
  C   C6        1.0  0.99638  0.24773  0.99155  1.0000
  C   C7        1.0  0.75625  0.50043  0.99315  1.0000
  C   C8        1.0  0.67253  0.33297  0.99315  1.0000
  C   C9        1.0  0.24499  0.50046  0.99315  1.0000
  C   C10       1.0  0.16126  0.33299  0.99316  1.0000
  C   C11       1.0  0.00422  0.75314  0.99356  1.0000
  C   C12       1.0  0.24973  0.75315  0.99356  1.0000
  C   C13       1.0  0.91327  0.08028  0.99357  1.0000
  C   C14       1.0  0.66777  0.08028  0.99355  1.0000
  C   C15       1.0  0.91765  0.83276  0.99384  1.0000
  C   C16       1.0  0.50159  0.00065  0.99384  1.0000
  C   C17       1.0  0.41590  0.83279  0.99383  1.0000
  C   C18       1.0  0.99982  0.00064  0.99384  1.0000
  C   C19       1.0  0.74645  0.99215  0.99522  1.0000
  C   C20       1.0  0.17104  0.84127  0.99523  1.0000
  C   C21       1.0  0.74797  0.74000  0.99693  1.0000
  C   C22       1.0  0.42468  0.09339  0.99694  1.0000
  C   C23       1.0  0.49281  0.74004  0.99691  1.0000
  C   C24       1.0  0.16951  0.09341  0.99692  1.0000
  N   N1        1.0  0.67401  0.57950  0.99887  1.0000
  N   N2        1.0  0.51120  0.25391  0.99888  1.0000
  C   C25       1.0  0.66170  0.82265  0.99786  1.0000
  N   N3        1.0  0.40631  0.57954  0.99881  1.0000
  C   C26       1.0  0.25580  0.01077  0.99787  1.0000
  N   N4        1.0  0.24347  0.25389  0.99883  1.0000
  Fe  Fe1       1.0  0.45872  0.41670  0.03218  1.0000
  O   O1        1.0  0.45838  0.41686  0.18691  1.0000
  H   H1        1.0  0.45919  0.41658  0.26890  1.0000
