data_image0
_chemical_formula_structural       C24N2CNCNFeO2H
_chemical_formula_sum              "C26 N4 Fe1 O2 H1"
_cell_length_a       9.84
_cell_length_b       9.84
_cell_length_c       11.8325
_cell_angle_alpha    90
_cell_angle_beta     90
_cell_angle_gamma    120

_space_group_name_H-M_alt    "P 1"
_space_group_IT_number       1

loop_
  _space_group_symop_operation_xyz
  'x, y, z'

loop_
  _atom_site_type_symbol
  _atom_site_label
  _atom_site_symmetry_multiplicity
  _atom_site_fract_x
  _atom_site_fract_y
  _atom_site_fract_z
  _atom_site_occupancy
  C   C1        1.0  0.00680  0.49749  0.99211  1.0000
  C   C2        1.0  0.92315  0.33016  0.99209  1.0000
  C   C3        1.0  0.92772  0.58320  0.99300  1.0000
  C   C4        1.0  0.17159  0.58320  0.99234  1.0000
  C   C5        1.0  0.75832  0.24442  0.99297  1.0000
  C   C6        1.0  0.00218  0.24441  0.99236  1.0000
  C   C7        1.0  0.76320  0.49766  0.99448  1.0000
  C   C8        1.0  0.67928  0.32989  0.99443  1.0000
  C   C9        1.0  0.25061  0.49768  0.99292  1.0000
  C   C10       1.0  0.16673  0.32982  0.99281  1.0000
  C   C11       1.0  0.01081  0.75093  0.99422  1.0000
  C   C12       1.0  0.25617  0.75090  0.99398  1.0000
  C   C13       1.0  0.91909  0.07674  0.99422  1.0000
  C   C14       1.0  0.67371  0.07671  0.99439  1.0000
  C   C15       1.0  0.92358  0.82961  0.99462  1.0000
  C   C16       1.0  0.50780  0.99811  0.99466  1.0000
  C   C17       1.0  0.42207  0.82961  0.99438  1.0000
  C   C18       1.0  0.00635  0.99811  0.99436  1.0000
  C   C19       1.0  0.75230  0.98850  0.99586  1.0000
  C   C20       1.0  0.17759  0.83916  0.99543  1.0000
  C   C21       1.0  0.75411  0.73673  0.99774  1.0000
  C   C22       1.0  0.43111  0.09091  0.99752  1.0000
  C   C23       1.0  0.49872  0.73670  0.99702  1.0000
  C   C24       1.0  0.17586  0.09097  0.99683  1.0000
  N   N1        1.0  0.67866  0.57420  0.99896  1.0000
  N   N2        1.0  0.51819  0.25340  0.99875  1.0000
  C   C25       1.0  0.66741  0.81862  0.99853  1.0000
  N   N3        1.0  0.41162  0.57428  0.99711  1.0000
  C   C26       1.0  0.26257  0.00902  0.99806  1.0000
  N   N4        1.0  0.25110  0.25334  0.99702  1.0000
  Fe  Fe1       1.0  0.46442  0.41372  0.02203  1.0000
  O   O1        1.0  0.46954  0.41387  0.17275  1.0000
  O   O2        1.0  0.33208  0.40997  0.22820  1.0000
  H   H1        1.0  0.38339  0.51609  0.26076  1.0000
